
     RDKit          3D

 31 34  0  0  0  0  0  0  0  0999 V2000
  122.3960  105.2520  121.6320 O   0  0  0  0  0  0  0  0  0  0  0  0
  122.1780  104.3940  120.7630 C   0  0  0  0  0  0  0  0  0  0  0  0
  123.0380  103.4120  120.3620 N   0  0  0  0  0  0  0  0  0  0  0  0
  122.3820  102.4280  119.5050 C   0  0  0  0  0  0  0  0  0  0  0  0
  123.7730  102.0950  119.6810 C   0  0  0  0  0  0  0  0  0  0  0  0
  124.9590  102.5770  120.4170 C   0  0  0  0  0  0  0  0  0  0  0  0
  125.8120  103.2880  119.8130 O   0  0  0  0  0  0  0  0  0  0  0  0
  125.0220  101.8990  121.5570 O   0  0  0  0  0  0  0  0  0  0  0  0
  124.4570  100.6210  121.3810 C   0  0  0  0  0  0  0  0  0  0  0  0
  124.4870   99.3890  122.0480 C   0  0  0  0  0  0  0  0  0  0  0  0
  124.4430   98.0820  121.2410 S   0  0  0  0  0  0  0  0  0  0  0  0
  123.7850   98.2070  119.9210 C   0  0  0  0  0  0  0  0  0  0  0  0
  123.3490   96.9720  119.2770 C   0  0  0  0  0  0  0  0  0  0  0  0
  124.3430   96.1480  119.0990 F   0  0  0  0  0  0  0  0  0  0  0  0
  122.4080   96.2970  119.9800 F   0  0  0  0  0  0  0  0  0  0  0  0
  122.6720   97.4300  118.0540 C   0  0  0  0  0  0  0  0  0  0  0  0
  121.2910   97.2300  118.3870 F   0  0  0  0  0  0  0  0  0  0  0  0
  122.7430   96.5580  116.8420 C   0  0  0  0  0  0  0  0  0  0  0  0
  121.5130   96.3650  116.6100 F   0  0  0  0  0  0  0  0  0  0  0  0
  123.5020   97.2680  116.0630 F   0  0  0  0  0  0  0  0  0  0  0  0
  123.3580   95.4700  117.0490 F   0  0  0  0  0  0  0  0  0  0  0  0
  123.3500   99.4790  119.5290 C   0  0  0  0  0  0  0  0  0  0  0  0
  123.8980  100.6460  120.1000 C   0  0  0  0  0  0  0  0  0  0  0  0
  120.9870  102.8470  119.5700 C   0  0  0  0  0  0  0  0  0  0  0  0
  119.9150  101.9010  119.6910 C   0  0  0  0  0  0  0  0  0  0  0  0
  120.0000  100.8840  120.6310 C   0  0  0  0  0  0  0  0  0  0  0  0
  119.0420   99.9650  120.7090 C   0  0  0  0  0  0  0  0  0  0  0  0
  117.9270  100.0420  119.8640 C   0  0  0  0  0  0  0  0  0  0  0  0
  117.8280  101.0490  118.9180 C   0  0  0  0  0  0  0  0  0  0  0  0
  118.8420  101.9550  118.8170 C   0  0  0  0  0  0  0  0  0  0  0  0
  120.9530  104.1120  120.2030 O   0  0  0  0  0  0  0  0  0  0  0  0
  1  2  2  0
  2  3  1  0
  3  4  1  0
  4  5  1  0
  5  6  1  0
  6  7  2  0
  6  8  1  0
  8  9  1  0
  9 10  1  0
 10 11  1  0
 11 12  1  0
 12 13  1  0
 13 14  1  0
 13 15  1  0
 13 16  1  0
 16 17  1  0
 16 18  1  0
 18 19  1  0
 18 20  1  0
 18 21  1  0
 12 22  1  0
 22 23  1  0
  4 24  1  0
 24 25  1  0
 25 26  1  0
 26 27  2  0
 27 28  1  0
 28 29  1  0
 29 30  2  0
 24 31  1  0
 31  2  1  0
 23  5  1  0
 30 25  1  0
 23  9  1  0
M  END
$$$$
