
     RDKit          3D

 20 22  0  0  0  0  0  0  0  0999 V2000
   -4.4690   -4.4860   -1.6080 C   0  0  0  0  0  0  0  0  0  0  0  0
   -5.2280   -4.0220   -0.3710 C   0  0  0  0  0  0  0  0  0  0  0  0
   -5.3050   -2.4950   -0.2770 C   0  0  0  0  0  0  0  0  0  0  0  0
   -4.0940   -1.7800   -0.9140 C   0  0  0  0  0  0  0  0  0  0  0  0
   -3.8810   -0.2960   -0.4380 C   0  0  0  0  0  0  0  0  0  0  0  0
   -3.4340    0.7090   -1.5400 C   0  0  0  0  0  0  0  0  0  0  0  0
   -4.5010    1.6100   -2.2010 C   0  0  0  0  0  0  0  0  0  0  0  0
   -4.0960    1.9520   -3.6560 C   0  0  0  0  0  0  0  0  0  0  0  0
   -3.2800    3.2370   -3.7390 C   0  0  0  0  0  0  0  0  0  0  0  0
   -4.0310    4.4100   -3.1040 C   0  0  0  0  0  0  0  0  0  0  0  0
   -5.1540    3.9570   -2.1710 C   0  0  0  0  0  0  0  0  0  0  0  0
   -4.7390    2.8070   -1.3740 N   0  0  0  0  0  0  0  0  0  0  0  0
   -2.8800   -0.2750    0.7950 C   0  0  0  0  0  0  0  0  0  0  0  0
   -3.6220   -0.6750    2.1030 C   0  0  0  0  0  0  0  0  0  0  0  0
   -3.1810    0.1100    3.3340 C   0  0  0  0  0  0  0  0  0  0  0  0
   -3.3550    1.6130    3.1290 C   0  0  0  0  0  0  0  0  0  0  0  0
   -2.9390    2.0860    1.7340 C   0  0  0  0  0  0  0  0  0  0  0  0
   -2.1000    1.0420    1.0100 C   0  0  0  0  0  0  0  0  0  0  0  0
   -2.8360   -2.6610   -0.8460 C   0  0  0  0  0  0  0  0  0  0  0  0
   -3.0280   -3.9710   -1.6210 C   0  0  0  0  0  0  0  0  0  0  0  0
  1  2  1  0
  2  3  1  0
  3  4  1  0
  4  5  1  0
  5  6  1  0
  6  7  1  0
  7  8  1  0
  8  9  1  0
  9 10  1  0
 10 11  1  0
 11 12  1  0
  5 13  1  0
 13 14  1  0
 14 15  1  0
 15 16  1  0
 16 17  1  0
 17 18  1  0
  4 19  1  0
 19 20  1  0
 20  1  1  0
 12  7  1  0
 18 13  1  0
M  END
$$$$
